<?xml version="1.0" encoding="UTF-8"?>

<!-- generated on Sun Nov 11 07:36:36 2018 by SUMO netconvert Version 0.32.0
<?xml version="1.0" encoding="UTF-8"?>

<configuration xmlns:xsi="http://www.w3.org/2001/XMLSchema-instance" xsi:noNamespaceSchemaLocation="http://sumo.dlr.de/xsd/netconvertConfiguration.xsd">

    <input>
        <osm-files value="map.osm"/>
    </input>

    <output>
        <output-file value="map.net.xml"/>
    </output>

    <projection>
        <proj.utm value="true"/>
    </projection>

    <tls_building>
        <tls.set value="5291653647,1467490899,1467490850"/>
    </tls_building>

</configuration>
-->

<net version="0.27" xmlns:xsi="http://www.w3.org/2001/XMLSchema-instance" xsi:noNamespaceSchemaLocation="http://sumo.dlr.de/xsd/net_file.xsd">

    <location netOffset="-208003.56,-2896649.26" convBoundary="0.00,0.00,14948.20,28891.52" origBoundary="78.072584,26.161674,78.223282,26.420206" projParameter="+proj=utm +zone=44 +ellps=WGS84 +datum=WGS84 +units=m +no_defs"/>

    <type id="highway.bridleway" priority="1" numLanes="1" speed="2.78" allow="pedestrian" oneway="1" width="2.00"/>
    <type id="highway.bus_guideway" priority="1" numLanes="1" speed="8.33" allow="bus" oneway="1"/>
    <type id="highway.cycleway" priority="1" numLanes="1" speed="5.56" allow="bicycle" oneway="0" width="1.00"/>
    <type id="highway.footway" priority="1" numLanes="1" speed="2.78" allow="pedestrian" oneway="1" width="2.00"/>
    <type id="highway.ford" priority="1" numLanes="1" speed="2.78" allow="army" oneway="0"/>
    <type id="highway.living_street" priority="3" numLanes="1" speed="2.78" disallow="tram rail_urban rail rail_electric ship" oneway="0"/>
    <type id="highway.motorway" priority="13" numLanes="2" speed="44.44" allow="private emergency authority army vip passenger hov taxi bus coach delivery truck trailer motorcycle evehicle custom1 custom2" oneway="1"/>
    <type id="highway.motorway_link" priority="12" numLanes="1" speed="22.22" allow="private emergency authority army vip passenger hov taxi bus coach delivery truck trailer motorcycle evehicle custom1 custom2" oneway="1"/>
    <type id="highway.path" priority="1" numLanes="1" speed="2.78" allow="bicycle pedestrian" oneway="1" width="2.00"/>
    <type id="highway.pedestrian" priority="1" numLanes="1" speed="2.78" allow="pedestrian" oneway="1" width="2.00"/>
    <type id="highway.primary" priority="9" numLanes="2" speed="27.78" disallow="tram rail_urban rail rail_electric ship" oneway="0"/>
    <type id="highway.primary_link" priority="8" numLanes="1" speed="22.22" disallow="tram rail_urban rail rail_electric ship" oneway="0"/>
    <type id="highway.raceway" priority="14" numLanes="2" speed="83.33" allow="vip" oneway="0"/>
    <type id="highway.residential" priority="4" numLanes="1" speed="13.89" disallow="tram rail_urban rail rail_electric ship" oneway="0"/>
    <type id="highway.secondary" priority="7" numLanes="2" speed="27.78" disallow="tram rail_urban rail rail_electric ship" oneway="0"/>
    <type id="highway.secondary_link" priority="6" numLanes="1" speed="22.22" disallow="tram rail_urban rail rail_electric ship" oneway="0"/>
    <type id="highway.service" priority="2" numLanes="1" speed="5.56" allow="delivery bicycle pedestrian" oneway="0"/>
    <type id="highway.services" priority="1" numLanes="1" speed="8.33" disallow="tram rail_urban rail rail_electric ship" oneway="0"/>
    <type id="highway.stairs" priority="1" numLanes="1" speed="1.39" allow="pedestrian" oneway="1" width="2.00"/>
    <type id="highway.step" priority="1" numLanes="1" speed="1.39" allow="pedestrian" oneway="1" width="2.00"/>
    <type id="highway.steps" priority="1" numLanes="1" speed="1.39" allow="pedestrian" oneway="1" width="2.00"/>
    <type id="highway.tertiary" priority="6" numLanes="1" speed="22.22" disallow="tram rail_urban rail rail_electric ship" oneway="0"/>
    <type id="highway.tertiary_link" priority="5" numLanes="1" speed="22.22" disallow="tram rail_urban rail rail_electric ship" oneway="0"/>
    <type id="highway.track" priority="1" numLanes="1" speed="5.56" disallow="tram rail_urban rail rail_electric ship" oneway="0"/>
    <type id="highway.trunk" priority="11" numLanes="2" speed="27.78" disallow="tram rail_urban rail rail_electric bicycle pedestrian ship" oneway="0"/>
    <type id="highway.trunk_link" priority="10" numLanes="1" speed="22.22" disallow="tram rail_urban rail rail_electric bicycle pedestrian ship" oneway="0"/>
    <type id="highway.unclassified" priority="5" numLanes="1" speed="13.89" disallow="tram rail_urban rail rail_electric ship" oneway="0"/>
    <type id="highway.unsurfaced" priority="1" numLanes="1" speed="8.33" disallow="tram rail_urban rail rail_electric ship" oneway="0"/>
    <type id="railway.light_rail" priority="15" numLanes="1" speed="27.78" allow="rail_urban" oneway="1"/>
    <type id="railway.preserved" priority="15" numLanes="1" speed="27.78" allow="rail" oneway="1"/>
    <type id="railway.rail" priority="15" numLanes="1" speed="83.33" allow="rail rail_electric" oneway="1"/>
    <type id="railway.subway" priority="15" numLanes="1" speed="27.78" allow="rail_urban" oneway="1"/>
    <type id="railway.tram" priority="15" numLanes="1" speed="13.89" allow="tram" oneway="1"/>

    <edge id=":1109061777_0" function="internal">
        <lane id=":1109061777_0_0" index="0" disallow="tram rail_urban rail rail_electric ship" speed="25.00" length="10.77" shape="9554.20,7991.59 9552.18,7991.76 9548.66,7992.06 9545.26,7992.52 9543.58,7993.13"/>
    </edge>
    <edge id=":1109061777_1" function="internal">
        <lane id=":1109061777_1_0" index="0" disallow="tram rail_urban rail rail_electric ship" speed="27.78" length="17.84" shape="9553.76,7988.32 9548.69,7988.28 9545.24,7986.57 9543.39,7983.18 9543.15,7978.13"/>
    </edge>
    <edge id=":1109061777_2" function="internal">
        <lane id=":1109061777_2_0" index="0" disallow="tram rail_urban rail rail_electric ship" speed="27.78" length="2.69" shape="9553.76,7988.32 9552.42,7987.67 9551.90,7986.91 9551.99,7986.64"/>
    </edge>
    <edge id=":1109061777_10" function="internal">
        <lane id=":1109061777_10_0" index="0" speed="27.78" length="2.13" shape="9551.99,7986.64 9552.20,7986.04 9553.31,7985.05"/>
    </edge>
    <edge id=":1109061777_3" function="internal">
        <lane id=":1109061777_3_0" index="0" disallow="tram rail_urban rail rail_electric ship" speed="27.78" length="5.30" shape="9549.72,7978.75 9549.79,7980.26 9550.34,7981.26 9551.37,7981.77 9552.87,7981.78"/>
    </edge>
    <edge id=":1109061777_4" function="internal">
        <lane id=":1109061777_4_0" index="0" disallow="tram rail_urban rail rail_electric ship" speed="27.78" length="11.57" shape="9546.43,7978.44 9546.59,7981.72 9547.79,7983.91 9550.03,7985.03 9553.31,7985.05"/>
    </edge>
    <edge id=":1109061777_5" function="internal">
        <lane id=":1109061777_5_0" index="0" disallow="tram rail_urban rail rail_electric ship" speed="25.00" length="15.03" shape="9546.43,7978.44 9545.95,7983.22 9545.44,7986.84 9544.72,7989.92 9543.58,7993.13"/>
    </edge>
    <edge id=":1109061777_6" function="internal">
        <lane id=":1109061777_6_0" index="0" disallow="tram rail_urban rail rail_electric ship" speed="27.78" length="2.20" shape="9546.43,7978.44 9545.49,7979.59 9544.83,7979.85"/>
    </edge>
    <edge id=":1109061777_11" function="internal">
        <lane id=":1109061777_11_0" index="0" speed="27.78" length="2.62" shape="9544.83,7979.85 9544.63,7979.93 9543.85,7979.44 9543.15,7978.13"/>
    </edge>
    <edge id=":1109061777_7" function="internal">
        <lane id=":1109061777_7_0" index="0" disallow="tram rail_urban rail rail_electric ship" speed="25.00" length="14.25" shape="9540.52,7991.90 9541.11,7988.73 9540.64,7985.75 9539.95,7982.32 9539.86,7977.81"/>
    </edge>
    <edge id=":1109061777_8" function="internal">
        <lane id=":1109061777_8_0" index="0" disallow="tram rail_urban rail rail_electric ship" speed="25.00" length="15.13" shape="9540.52,7991.90 9542.14,7989.44 9544.80,7987.48 9548.53,7986.02 9553.31,7985.05"/>
    </edge>
    <edge id=":1109061777_9" function="internal">
        <lane id=":1109061777_9_0" index="0" disallow="tram rail_urban rail rail_electric ship" speed="22.22" length="4.82" shape="9540.52,7991.90 9541.75,7991.06 9542.67,7990.98 9543.28,7991.67 9543.58,7993.13"/>
    </edge>
    <edge id=":1109061882_0" function="internal">
        <lane id=":1109061882_0_0" index="0" disallow="tram rail_urban rail rail_electric ship" speed="22.22" length="4.80" shape="9425.66,8143.18 9424.40,8142.93 9423.30,8143.10 9422.36,8143.70 9421.59,8144.73"/>
    </edge>
    <edge id=":1109061882_1" function="internal">
        <lane id=":1109061882_1_0" index="0" disallow="tram rail_urban rail rail_electric ship" speed="18.05" length="3.40" shape="9425.66,8143.18 9423.41,8142.05 9422.79,8141.42"/>
    </edge>
    <edge id=":1109061882_2" function="internal">
        <lane id=":1109061882_2_0" index="0" disallow="tram rail_urban rail rail_electric ship" speed="22.22" length="2.21" shape="9425.66,8143.18 9424.76,8142.00 9424.67,8141.28"/>
    </edge>
    <edge id=":1109061882_9" function="internal">
        <lane id=":1109061882_9_0" index="0" speed="18.05" length="5.94" shape="9422.79,8141.42 9421.88,8140.48 9421.08,8138.46 9421.01,8136.00"/>
    </edge>
    <edge id=":1109061882_10" function="internal">
        <lane id=":1109061882_10_0" index="0" speed="22.22" length="2.61" shape="9424.67,8141.28 9424.64,8141.08 9425.30,8140.44 9426.74,8140.06"/>
    </edge>
    <edge id=":1109061882_3" function="internal">
        <lane id=":1109061882_3_0" index="0" disallow="tram rail_urban rail rail_electric ship" speed="18.05" length="4.86" shape="9424.29,8136.35 9424.33,8137.62 9424.75,8138.66 9425.56,8139.47 9426.74,8140.06"/>
    </edge>
    <edge id=":1109061882_4" function="internal">
        <lane id=":1109061882_4_0" index="0" disallow="tram rail_urban rail rail_electric ship" speed="18.05" length="8.91" shape="9424.29,8136.35 9423.97,8138.97 9423.57,8140.74 9422.85,8142.42 9421.59,8144.73"/>
    </edge>
    <edge id=":1109061882_5" function="internal">
        <lane id=":1109061882_5_0" index="0" disallow="tram rail_urban rail rail_electric ship" speed="13.89" length="4.82" shape="9424.29,8136.35 9423.34,8137.49 9422.47,8137.81 9421.69,8137.32 9421.01,8136.00"/>
    </edge>
    <edge id=":1109061882_6" function="internal">
        <lane id=":1109061882_6_0" index="0" disallow="tram rail_urban rail rail_electric ship" speed="18.05" length="7.58" shape="9418.71,8143.12 9419.78,8141.15 9420.39,8139.73 9420.73,8138.22 9421.01,8136.00"/>
    </edge>
    <edge id=":1109061882_7" function="internal">
        <lane id=":1109061882_7_0" index="0" disallow="tram rail_urban rail rail_electric ship" speed="22.22" length="9.47" shape="9418.71,8143.12 9420.24,8141.09 9422.08,8139.91 9424.25,8139.56 9426.74,8140.06"/>
    </edge>
    <edge id=":1109061882_8" function="internal">
        <lane id=":1109061882_8_0" index="0" disallow="tram rail_urban rail rail_electric ship" speed="22.22" length="2.68" shape="9418.71,8143.12 9420.03,8142.44 9420.95,8142.49 9421.11,8142.71"/>
    </edge>
    <edge id=":1109061882_11" function="internal">
        <lane id=":1109061882_11_0" index="0" speed="22.22" length="2.14" shape="9421.11,8142.71 9421.47,8143.25 9421.59,8144.73"/>
    </edge>
    <edge id=":1109061893_0" function="internal">
        <lane id=":1109061893_0_0" index="0" disallow="tram rail_urban rail rail_electric ship" speed="27.78" length="4.82" shape="9222.97,5603.50 9223.61,5602.15 9224.37,5601.63 9225.24,5601.92 9226.24,5603.02"/>
    </edge>
    <edge id=":1109061928_0" function="internal">
        <lane id=":1109061928_0_0" index="0" disallow="tram rail_urban rail rail_electric ship" speed="13.89" length="2.64" shape="9461.65,8037.89 9461.18,8038.41 9461.14,8038.96 9461.18,8039.58 9460.96,8040.32"/>
    </edge>
    <edge id=":1109061928_1" function="internal">
        <lane id=":1109061928_1_0" index="0" disallow="tram rail_urban rail rail_electric ship" speed="13.89" length="1.49" shape="9461.65,8037.89 9460.16,8037.88"/>
    </edge>
    <edge id=":1109061928_4" function="internal">
        <lane id=":1109061928_4_0" index="0" speed="13.89" length="3.33" shape="9460.16,8037.88 9459.36,8037.42 9459.25,8036.50 9459.83,8035.14"/>
    </edge>
    <edge id=":1109061928_2" function="internal">
        <lane id=":1109061928_2_0" index="0" disallow="tram rail_urban rail rail_electric ship" speed="13.89" length="4.08" shape="9458.09,8038.70 9458.54,8037.57 9458.71,8036.68 9459.00,8035.91 9459.83,8035.14"/>
    </edge>
    <edge id=":1109061928_3" function="internal">
        <lane id=":1109061928_3_0" index="0" disallow="tram rail_urban rail rail_electric ship" speed="13.89" length="1.68" shape="9458.09,8038.70 9459.42,8038.03 9459.61,8038.04"/>
    </edge>
    <edge id=":1109061928_5" function="internal">
        <lane id=":1109061928_5_0" index="0" speed="13.89" length="3.14" shape="9459.61,8038.04 9460.34,8038.07 9460.85,8038.84 9460.96,8040.32"/>
    </edge>
    <edge id=":1151909714_0" function="internal">
        <lane id=":1151909714_0_0" index="0" disallow="tram rail_urban rail rail_electric ship" speed="27.78" length="0.38" shape="9915.46,7931.20 9915.02,7931.17"/>
        <lane id=":1151909714_0_1" index="1" disallow="tram rail_urban rail rail_electric ship" speed="27.78" length="0.38" shape="9915.66,7927.91 9915.35,7927.88"/>
    </edge>
    <edge id=":1151909714_2" function="internal">
        <lane id=":1151909714_2_0" index="0" disallow="tram rail_urban rail rail_electric ship" speed="27.78" length="2.41" shape="9915.66,7927.91 9914.48,7927.01 9914.12,7926.16"/>
    </edge>
    <edge id=":1151909714_6" function="internal">
        <lane id=":1151909714_6_0" index="0" speed="27.78" length="2.41" shape="9914.12,7926.16 9914.58,7925.36 9915.87,7924.61"/>
    </edge>
    <edge id=":1151909714_3" function="internal">
        <lane id=":1151909714_3_0" index="0" disallow="tram rail_urban rail rail_electric ship" speed="27.78" length="0.14" shape="9916.03,7921.32 9916.07,7921.32"/>
        <lane id=":1151909714_3_1" index="1" disallow="tram rail_urban rail rail_electric ship" speed="27.78" length="0.14" shape="9915.69,7924.60 9915.87,7924.61"/>
    </edge>
    <edge id=":1151909714_5" function="internal">
        <lane id=":1151909714_5_0" index="0" disallow="tram rail_urban rail rail_electric ship" speed="27.78" length="2.41" shape="9915.69,7924.60 9916.84,7925.55 9917.16,7926.41"/>
    </edge>
    <edge id=":1151909714_7" function="internal">
        <lane id=":1151909714_7_0" index="0" speed="27.78" length="2.41" shape="9917.16,7926.41 9916.67,7927.19 9915.35,7927.88"/>
    </edge>
    <edge id=":1151909754_0" function="internal">
        <lane id=":1151909754_0_0" index="0" disallow="tram rail_urban rail rail_electric ship" speed="27.78" length="15.29" shape="10359.22,7986.43 10352.28,7998.64"/>
        <lane id=":1151909754_0_1" index="1" disallow="tram rail_urban rail rail_electric ship" speed="27.78" length="15.29" shape="10358.04,7983.16 10348.76,7996.85"/>
    </edge>
    <edge id=":1151909754_2" function="internal">
        <lane id=":1151909754_2_0" index="0" disallow="tram rail_urban rail rail_electric ship" speed="27.78" length="15.30" shape="10358.04,7983.16 10346.03,7992.65"/>
    </edge>
    <edge id=":1151909754_3" function="internal">
        <lane id=":1151909754_3_0" index="0" disallow="tram rail_urban rail rail_electric ship" speed="27.78" length="12.92" shape="10358.04,7983.16 10346.74,7989.43"/>
    </edge>
    <edge id=":1151909754_4" function="internal">
        <lane id=":1151909754_4_0" index="0" disallow="tram rail_urban rail rail_electric ship" speed="27.78" length="4.09" shape="10348.15,7982.98 10347.57,7983.77 10348.06,7986.65 10348.12,7986.83"/>
    </edge>
    <edge id=":1151909754_5" function="internal">
        <lane id=":1151909754_5_0" index="0" disallow="tram rail_urban rail rail_electric ship" speed="27.78" length="0.89" shape="10347.44,7986.20 10347.76,7987.03"/>
    </edge>
    <edge id=":1151909754_6" function="internal">
        <lane id=":1151909754_6_0" index="0" disallow="tram rail_urban rail rail_electric ship" speed="27.78" length="0.91" shape="10347.44,7986.20 10348.07,7986.86"/>
    </edge>
    <edge id=":1151909754_7" function="internal">
        <lane id=":1151909754_7_0" index="0" speed="27.78" length="12.53" shape="10348.12,7986.83 10349.63,7991.61 10352.28,7998.64"/>
    </edge>
    <edge id=":1151909754_8" function="internal">
        <lane id=":1151909754_8_0" index="0" speed="27.78" length="9.91" shape="10347.76,7987.03 10348.05,7987.82 10348.45,7991.23 10348.67,7994.80 10348.76,7996.85"/>
    </edge>
    <edge id=":1151909754_9" function="internal">
        <lane id=":1151909754_9_0" index="0" speed="27.78" length="3.91" shape="10348.07,7986.86 10348.48,7987.27 10348.70,7988.17 10348.12,7988.88 10346.74,7989.43"/>
    </edge>
    <edge id=":1151912869_0" function="internal">
        <lane id=":1151912869_0_0" index="0" disallow="tram rail_urban rail rail_electric ship" speed="20.84" length="5.38" shape="10095.71,7942.82 10094.34,7942.79 10093.26,7943.27 10092.48,7944.26 10092.00,7945.76"/>
    </edge>
    <edge id=":1151912869_1" function="internal">
        <lane id=":1151912869_1_0" index="0" disallow="tram rail_urban rail rail_electric ship" speed="27.78" length="9.92" shape="10095.71,7942.82 10092.87,7942.31 10090.92,7942.04 10088.95,7941.87 10086.07,7941.69"/>
        <lane id=":1151912869_1_1" index="1" disallow="tram rail_urban rail rail_electric ship" speed="27.78" length="9.92" shape="10096.31,7939.58 10093.36,7939.05 10091.32,7938.76 10089.27,7938.58 10086.27,7938.40"/>
    </edge>
    <edge id=":1151912869_3" function="internal">
        <lane id=":1151912869_3_0" index="0" disallow="tram rail_urban rail rail_electric ship" speed="27.78" length="2.41" shape="10096.31,7939.58 10095.25,7938.54 10094.99,7937.66"/>
    </edge>
    <edge id=":1151912869_11" function="internal">
        <lane id=":1151912869_11_0" index="0" speed="27.78" length="2.41" shape="10094.99,7937.66 10095.55,7936.92 10096.91,7936.33"/>
    </edge>
    <edge id=":1151912869_4" function="internal">
        <lane id=":1151912869_4_0" index="0" disallow="tram rail_urban rail rail_electric ship" speed="27.78" length="10.73" shape="10086.68,7931.81 10089.91,7932.01 10092.13,7932.20 10094.33,7932.52 10097.52,7933.09"/>
        <lane id=":1151912869_4_1" index="1" disallow="tram rail_urban rail rail_electric ship" speed="27.78" length="10.73" shape="10086.47,7935.10 10089.59,7935.30 10091.72,7935.48 10093.84,7935.78 10096.91,7936.33"/>
    </edge>
    <edge id=":1151912869_6" function="internal">
        <lane id=":1151912869_6_0" index="0" disallow="tram rail_urban rail rail_electric ship" speed="20.84" length="4.86" shape="10086.47,7935.10 10089.62,7935.94 10090.73,7937.10"/>
    </edge>
    <edge id=":1151912869_7" function="internal">
        <lane id=":1151912869_7_0" index="0" disallow="tram rail_urban rail rail_electric ship" speed="27.78" length="2.41" shape="10086.47,7935.10 10087.66,7936.00 10088.02,7936.85"/>
    </edge>
    <edge id=":1151912869_12" function="internal">
        <lane id=":1151912869_12_0" index="0" speed="20.84" length="9.12" shape="10090.73,7937.10 10091.58,7938.00 10092.38,7941.27 10092.00,7945.76"/>
    </edge>
    <edge id=":1151912869_13" function="internal">
        <lane id=":1151912869_13_0" index="0" speed="27.78" length="2.41" shape="10088.02,7936.85 10087.56,7937.65 10086.27,7938.40"/>
    </edge>
    <edge id=":1151912869_8" function="internal">
        <lane id=":1151912869_8_0" index="0" disallow="tram rail_urban rail rail_electric ship" speed="20.84" length="5.16" shape="10088.76,7945.15 10088.82,7943.71 10088.40,7942.66 10087.48,7941.98 10086.07,7941.69"/>
    </edge>
    <edge id=":1151912869_9" function="internal">
        <lane id=":1151912869_9_0" index="0" disallow="tram rail_urban rail rail_electric ship" speed="20.84" length="13.48" shape="10088.76,7945.15 10089.98,7940.86 10091.74,7937.96 10094.05,7936.45 10096.91,7936.33"/>
    </edge>
    <edge id=":1151912869_10" function="internal">
        <lane id=":1151912869_10_0" index="0" disallow="tram rail_urban rail rail_electric ship" speed="13.89" length="4.82" shape="10088.76,7945.15 10089.80,7944.09 10090.69,7943.83 10091.42,7944.39 10092.00,7945.76"/>
    </edge>
    <edge id=":1467490458_0" function="internal">
        <lane id=":1467490458_0_0" index="0" disallow="tram rail_urban rail rail_electric ship" speed="20.84" length="4.49" shape="10544.90,8041.18 10544.62,8040.06 10544.06,8039.17 10543.21,8038.52 10542.08,8038.09"/>
    </edge>
    <edge id=":1467490458_1" function="internal">
        <lane id=":1467490458_1_0" index="0" disallow="tram rail_urban rail rail_electric ship" speed="13.89" length="4.82" shape="10544.90,8041.18 10545.59,8039.86 10546.36,8039.36 10547.23,8039.68 10548.18,8040.82"/>
    </edge>
    <edge id=":1467490458_2" function="internal">
        <lane id=":1467490458_2_0" index="0" disallow="tram rail_urban rail rail_electric ship" speed="20.84" length="3.97" shape="10551.72,8040.46 10550.12,8040.14 10549.00,8040.09 10548.35,8040.32 10548.18,8040.82"/>
    </edge>
    <edge id=":1467490458_3" function="internal">
        <lane id=":1467490458_3_0" index="0" disallow="tram rail_urban rail rail_electric ship" speed="27.78" length="9.94" shape="10551.72,8040.46 10542.08,8038.09"/>
        <lane id=":1467490458_3_1" index="1" disallow="tram rail_urban rail rail_electric ship" speed="27.78" length="9.94" shape="10552.52,8037.26 10542.86,8034.88"/>
    </edge>
    <edge id=":1467490501_0" function="internal">
        <lane id=":1467490501_0_0" index="0" disallow="tram rail_urban rail rail_electric ship" speed="22.22" length="9.86" shape="10602.25,8491.61 10593.30,8495.76"/>
    </edge>
    <edge id=":1467490501_1" function="internal">
        <lane id=":1467490501_1_0" index="0" disallow="tram rail_urban rail rail_electric ship" speed="18.05" length="5.61" shape="10602.25,8491.61 10598.89,8492.63 10596.82,8492.25"/>
    </edge>
    <edge id=":1467490501_2" function="internal">
        <lane id=":1467490501_2_0" index="0" disallow="tram rail_urban rail rail_electric ship" speed="22.22" length="2.41" shape="10602.25,8491.61 10600.78,8491.38 10600.06,8490.81"/>
    </edge>
    <edge id=":1467490501_9" function="internal">
        <lane id=":1467490501_9_0" index="0" speed="18.05" length="6.55" shape="10596.82,8492.25 10596.36,8492.17 10594.66,8490.24 10593.79,8486.84"/>
    </edge>
    <edge id=":1467490501_10" function="internal">
        <lane id=":1467490501_10_0" index="0" speed="22.22" length="2.41" shape="10600.06,8490.81 10600.08,8489.89 10600.86,8488.62"/>
    </edge>
    <edge id=":1467490501_3" function="internal">
        <lane id=":1467490501_3_0" index="0" disallow="tram rail_urban rail rail_electric ship" speed="18.05" length="5.45" shape="10597.07,8486.48 10597.46,8488.00 10598.22,8488.87 10599.36,8489.07 10600.86,8488.62"/>
    </edge>
    <edge id=":1467490501_4" function="internal">
        <lane id=":1467490501_4_0" index="0" disallow="tram rail_urban rail rail_electric ship" speed="18.05" length="10.73" shape="10597.07,8486.48 10597.13,8489.75 10596.52,8492.38 10595.25,8494.39 10593.30,8495.76"/>
    </edge>
    <edge id=":1467490501_5" function="internal">
        <lane id=":1467490501_5_0" index="0" disallow="tram rail_urban rail rail_electric ship" speed="13.89" length="4.82" shape="10597.07,8486.48 10596.39,8487.80 10595.61,8488.30 10594.75,8487.98 10593.79,8486.84"/>
    </edge>
    <edge id=":1467490501_6" function="internal">
        <lane id=":1467490501_6_0" index="0" disallow="tram rail_urban rail rail_electric ship" speed="18.05" length="6.61" shape="10591.91,8492.76 10592.93,8491.97 10593.59,8490.72 10593.87,8489.01 10593.79,8486.84"/>
    </edge>
    <edge id=":1467490501_7" function="internal">
        <lane id=":1467490501_7_0" index="0" disallow="tram rail_urban rail rail_electric ship" speed="22.22" length="9.86" shape="10591.91,8492.76 10600.86,8488.62"/>
    </edge>
    <edge id=":1467490501_8" function="internal">
        <lane id=":1467490501_8_0" index="0" disallow="tram rail_urban rail rail_electric ship" speed="22.22" length="2.41" shape="10591.91,8492.76 10593.38,8492.99 10594.11,8493.57"/>
    </edge>
    <edge id=":1467490501_11" function="internal">
        <lane id=":1467490501_11_0" index="0" speed="22.22" length="2.41" shape="10594.11,8493.57 10594.08,8494.49 10593.30,8495.76"/>
    </edge>
    <edge id=":1467490510_0" function="internal">
        <lane id=":1467490510_0_0" index="0" disallow="tram rail_urban rail rail_electric ship" speed="25.00" length="6.19" shape="10173.01,8510.78 10171.12,8510.64 10169.60,8510.94 10168.47,8511.68 10167.71,8512.85"/>
    </edge>
    <edge id=":1467490510_1" function="internal">
        <lane id=":1467490510_1_0" index="0" disallow="tram rail_urban rail rail_electric ship" speed="18.05" length="18.01" shape="10173.01,8510.78 10168.91,8509.80 10164.37,8508.28 10159.96,8506.42 10156.24,8504.43"/>
    </edge>
    <edge id=":1467490510_2" function="internal">
        <lane id=":1467490510_2_0" index="0" disallow="tram rail_urban rail rail_electric ship" speed="25.00" length="14.71" shape="10173.01,8510.78 10168.47,8509.48 10165.68,8507.44 10164.65,8504.68 10165.37,8501.18"/>
    </edge>
    <edge id=":1467490510_3" function="internal">
        <lane id=":1467490510_3_0" index="0" disallow="tram rail_urban rail rail_electric ship" speed="22.22" length="4.82" shape="10173.01,8510.78 10171.93,8509.76 10171.67,8508.88 10172.21,8508.13 10173.57,8507.53"/>
    </edge>
    <edge id=":1467490510_4" function="internal">
        <lane id=":1467490510_4_0" index="0" disallow="tram rail_urban rail rail_electric ship" speed="25.00" length="5.29" shape="10171.47,8503.70 10171.10,8505.15 10171.32,8506.28 10172.15,8507.07 10173.57,8507.53"/>
    </edge>
    <edge id=":1467490510_5" function="internal">
        <lane id=":1467490510_5_0" index="0" disallow="tram rail_urban rail rail_electric ship" speed="27.78" length="9.91" shape="10171.47,8503.70 10167.71,8512.85"/>
        <lane id=":1467490510_5_1" index="1" disallow="tram rail_urban rail rail_electric ship" speed="27.78" length="9.91" shape="10168.42,8502.44 10164.65,8511.62"/>
    </edge>
    <edge id=":1467490510_7" function="internal">
        <lane id=":1467490510_7_0" index="0" disallow="tram rail_urban rail rail_electric ship" speed="20.84" length="5.12" shape="10168.42,8502.44 10166.47,8505.42 10165.07,8506.12"/>
    </edge>
    <edge id=":1467490510_8" function="internal">
        <lane id=":1467490510_8_0" index="0" disallow="tram rail_urban rail rail_electric ship" speed="27.78" length="2.41" shape="10168.42,8502.44 10167.18,8503.27 10166.26,8503.33"/>
    </edge>
    <edge id=":1467490510_18" function="internal">
        <lane id=":1467490510_18_0" index="0" speed="20.84" length="9.45" shape="10165.07,8506.12 10163.79,8506.75 10160.38,8506.42 10156.24,8504.43"/>
    </edge>
    <edge id=":1467490510_19" function="internal">
        <lane id=":1467490510_19_0" index="0" speed="27.78" length="2.41" shape="10166.26,8503.33 10165.66,8502.64 10165.37,8501.18"/>
    </edge>
    <edge id=":1467490510_9" function="internal">
        <lane id=":1467490510_9_0" index="0" disallow="tram rail_urban rail rail_electric ship" speed="20.84" length="5.53" shape="10157.99,8501.63 10159.34,8502.20 10160.51,8502.10 10161.50,8501.34 10162.32,8499.91"/>
    </edge>
    <edge id=":1467490510_10" function="internal">
        <lane id=":1467490510_10_0" index="0" disallow="tram rail_urban rail rail_electric ship" speed="18.05" length="16.75" shape="10157.99,8501.63 10161.52,8503.55 10165.52,8505.26 10169.66,8506.62 10173.57,8507.53"/>
    </edge>
    <edge id=":1467490510_11" function="internal">
        <lane id=":1467490510_11_0" index="0" disallow="tram rail_urban rail rail_electric ship" speed="20.84" length="12.95" shape="10157.99,8501.63 10161.61,8504.26 10163.92,8506.80 10164.94,8509.25 10164.65,8511.62"/>
    </edge>
    <edge id=":1467490510_12" function="internal">
        <lane id=":1467490510_12_0" index="0" disallow="tram rail_urban rail rail_electric ship" speed="13.89" length="4.82" shape="10157.99,8501.63 10158.60,8502.99 10158.51,8503.90 10157.73,8504.39 10156.24,8504.43"/>
    </edge>
    <edge id=":1467490510_13" function="internal">
        <lane id=":1467490510_13_0" index="0" disallow="tram rail_urban rail rail_electric ship" speed="20.84" length="5.76" shape="10158.53,8509.16 10158.79,8507.87 10158.49,8506.66 10157.64,8505.51 10156.24,8504.43"/>
    </edge>
    <edge id=":1467490510_14" function="internal">
        <lane id=":1467490510_14_0" index="0" disallow="tram rail_urban rail rail_electric ship" speed="27.78" length="9.97" shape="10158.53,8509.16 10162.32,8499.91"/>
        <lane id=":1467490510_14_1" index="1" disallow="tram rail_urban rail rail_electric ship" speed="27.78" length="9.97" shape="10161.59,8510.39 10165.37,8501.18"/>
    </edge>
    <edge id=":1467490510_16" function="internal">
        <lane id=":1467490510_16_0" index="0" disallow="tram rail_urban rail rail_electric ship" speed="25.00" length="3.97" shape="10161.59,8510.39 10163.04,8508.48 10164.48,8507.84"/>
    </edge>
    <edge id=":1467490510_17" function="internal">
        <lane id=":1467490510_17_0" index="0" disallow="tram rail_urban rail rail_electric ship" speed="27.78" length="2.41" shape="10161.59,8510.39 10162.82,8509.55 10163.74,8509.48"/>
    </edge>
    <edge id=":1467490510_20" function="internal">
        <lane id=":1467490510_20_0" index="0" speed="25.00" length="9.24" shape="10164.48,8507.84 10165.52,8507.37 10169.03,8507.05 10173.57,8507.53"/>
    </edge>
    <edge id=":1467490510_21" function="internal">